339A48DB      1A   181CD    3039B6698493
      1C      3D1D8790F23FECCFAC
371591BB3FEFE11C11753C553FE69433C62732623FE6B92C6EFC1DB03FDB97AD
1A8002543FCCB10284D3AE803F720304109C65583FCE533314E7814F3FEF3F35
809E6C003FACA3D12424501C3FCFCAB82F6296203FE707DF6F45C3643FDFC9D9
60EA66263FE566731D8F0C383FC4B4F02E9900003F34DD93C08BC2A03FA44ACB
17432AEE3FE5645CCE09515C3FE39A51F215C9AB3FE5F2A49A4741D93FE270BE
2617CAFC3FEF4353105CDDC03FE276D5375CEA103FB4274F275661D33FE43E86
491BE40E3FD3760788BDB31E3FD5729CBF68554C3FCFA86EDE93074F3FE0359E
A7DDFFC03FB9776725216E113FEAEAE9E68234283FB89A28EDED53203FE267EE
5B8DE9243FEEE9AC4487E5D13FEC709F7AAC417F3FE1507BFF3D2CC33FE56CD8
FDB588493FE58EE8FF206CA03FB3E0D3109A8C863FD72B08B56AE54A3FE67E27
9E6C00783FC2D78E61DDDD803F75A1DA AFD210E3FEAE4B950EABB973FE34B06
46EF41F23FD5BF7912D741AA3FEB41BE7B8CA2E03FB3D9656067B1B23FE52F1C
 97EB5063FDE9D691AE3C47E3FD13F69694202A03FAFD695AE7054B03FD1EDDC
7E4259883FD65FDD1EC444783FCA8FFE90FB00EB3FE0EFAB673756F83FDCE0D2
1CD999463FED14D03DCEA7B83FD48C271F26981E3FE6A562F51559703FD226A3
8A9030CC3FCE59F93ED6F1003FD91B722A9495473FEC456CDD734D1C3FD3C263
16DD03403FBD754B9FB388BE3FE15612389235763FD46700FED1AD603FC7F4B6
2B7615483FE57756A41894A83FD980E28177F32C3FD13A4518A483203F9006C8
FAC87EDC3FEA8178B6935CB43FE0818FD124BD263FEAA9782B2C77D03FD4B537
BB7D7CA63FD860CCC8BEEAE03FA6931FE2B775903FA0FE8E29B9CFCE3FDE7304
845663863FDCDBAFE08C98C63FE14ECFA35540583FC4E881E1187E5E3FED4320
857170E03FA73DDBF733E5203F9E2DA9744711303FA1BD4BCA3B597E3FE52174
AA647C5C3FCCF96C536F86C03F94B9F6D097F1403FD6C3D0660078BC3FC88225
71BD80DC3FCBA49170D790403FA5FC3528DC55A43FC213AFFC5BB5E83FC063A7
C50619663FE24B0F
