 796479C      1B   181CD    3039B6698493
      1C      3DCE301CDA3FED9ABE
3D141E223FE6420AEA8EA85E3FDFF63B86B3D0A03FADB4598A2A13FC3FD6B4F1
8BC74F9C3FC5C9B3BDE541183FCC069EBAB819AE3FD920CA56200EF83FCB0E4D
4DF2260A3FE91A9F9EADB8533FEACFD28BAE6DC03FE3CC2940621D503FECB35A
EDCB69F83FE986F4336A7EB23FD9852B3F116E473FEC35B547F78B8B3FEBE4DA
 A9291D43FC68FC971342A003FA364CF21DD363E3FD71A9A4A3209C03FEA4E06
E196DB203FE5EBEC2DC2ABC03FDBA17C5F40DF2C3FE81FD359291E803FA9BE35
63B0138C3FEA325AB05E69583FE842CB4C6D7DB83FDF7BE1CF695C9C3FEA3C00
6FE9AC2A3FE61B2A5FBA836E3FE0B42D52FB3DE03FD629B2116E973C3FE5021D
8D63D2B03FE553BB98D235F03FCDCE24A97F492F3FEE3B18ABEE16303FA3B828
 B3367163FED5735A7471C503FC8CE2913C8AE283FC9572641357A823FE58601
42A3F7E83FC392C32D0F43B63FEE664CF008EED73FE075EB D72333B3FEAA5EE
53A230933FE305642B2CD22F3FEB5F30978F71D63FDF9515 6540ABD3FEEF3E1
D2F863403FCE8B98996826363FE519D9EC832DF43FCD25447DE5B89E3FDDFD64
74AF1A053FEBC3C2BAF45DB93FE0783853EB63913FE6CA495E41D6973FE3A8DB
6D10E0003FD695E3C935C9343FEF96F259E602E43FE7DBF82D9C27933FE498C6
20DE06E03FC08ED7CB62272A3FDF6567D4CF039C3FED5F4AD47B90D63FDC3BE7
CD1085E83FDC3E42DB69C2943FC3218162DA79C43FC028F25D22E5523FE427C8
 C39CD0E3FE4663E1730FCA03FBDEA9D47FBFBD23FEE95AEEA65894A3FECF0F0
EE4402DA3FE233E32CA2A5333FEB97A09FE8AE5C3FC6C128C175CCB83FEF0F01
CF9F38D83FB7B04DC197C3893FE5B3F4E40319003F8314F1E13B4D883FDC584E
DC01A7F23FEE51136FABFB763FDF2E11B794169C3FC234AE502F32403FED54F9
29E572183FDA30E049F5FF303FE24A43C13DA5923FDD4BB52B27B2003FA4AE6C
64EE946A3FED0321DCB6621C3FE9A1FBD849DE003F65538394EF6BA53FEEC0CC
340E2AC03FD71FFFCB367AB83FC21BBCB8EB566D3FE71EEE669DDBFB3FE12E86
763CE1283FCC403F
